Version 4
SHEET 1 1532 700
WIRE 992 -1328 944 -1328
WIRE 1120 -1328 1056 -1328
WIRE 1344 -1232 1328 -1232
WIRE 1456 -1232 1424 -1232
WIRE 944 -1216 944 -1328
WIRE 992 -1216 944 -1216
WIRE 1120 -1216 1120 -1328
WIRE 1120 -1216 1072 -1216
WIRE 464 -1184 96 -1184
WIRE 464 -1152 368 -1152
WIRE 96 -1136 96 -1184
WIRE 688 -1104 640 -1104
WIRE 720 -1104 688 -1104
WIRE 848 -1104 800 -1104
WIRE 944 -1104 944 -1216
WIRE 944 -1104 912 -1104
WIRE 992 -1104 944 -1104
WIRE 1120 -1088 1120 -1216
WIRE 1120 -1088 1056 -1088
WIRE 1168 -1088 1120 -1088
WIRE 1216 -1088 1168 -1088
WIRE 1328 -1088 1328 -1232
WIRE 1328 -1088 1296 -1088
WIRE 1360 -1088 1328 -1088
WIRE 992 -1072 960 -1072
WIRE 1456 -1072 1456 -1232
WIRE 1456 -1072 1424 -1072
WIRE 1488 -1072 1456 -1072
WIRE 1520 -1072 1488 -1072
WIRE 368 -1056 368 -1072
WIRE 464 -1056 368 -1056
WIRE 1360 -1056 1328 -1056
WIRE 96 -1024 96 -1056
WIRE 464 -1024 272 -1024
WIRE 576 -1024 576 -1040
WIRE 960 -1008 960 -1072
WIRE 1328 -992 1328 -1056
WIRE 608 -928 608 -944
WIRE 720 -928 720 -944
WIRE 96 -912 96 -944
WIRE 272 -912 272 -1024
WIRE 272 -912 96 -912
WIRE 96 -896 96 -912
WIRE 608 -832 608 -848
WIRE 720 -832 720 -848
WIRE 96 -784 96 -816
FLAG 608 -944 +V
FLAG 608 -832 0
FLAG 688 -1104 Out1
FLAG 496 -1200 +V
FLAG 720 -944 -V
FLAG 496 -1008 -V
FLAG 720 -832 0
FLAG 96 -784 0
FLAG 576 -1024 0
FLAG 1024 -1120 +V
FLAG 1024 -1056 -V
FLAG 960 -1008 0
FLAG 1168 -1088 Out2
FLAG 1488 -1072 Out3
FLAG 1392 -1104 +V
FLAG 944 -976 -V
FLAG 1392 -1040 -V
FLAG 1328 -992 0
SYMBOL voltage 608 -944 R0
WINDOW 123 0 0 Left 2
WINDOW 39 0 0 Left 2
SYMATTR InstName V1
SYMATTR Value 3.7
SYMBOL voltage 96 -1152 R0
WINDOW 123 24 146 Left 2
WINDOW 39 24 125 Left 2
SYMATTR InstName Vin
SYMATTR Value SINE(0 5m 100)
SYMBOL res 352 -1168 R0
SYMATTR InstName R1
SYMATTR Value 5.49K
SYMBOL voltage 720 -944 R0
WINDOW 123 24 146 Left 2
WINDOW 39 24 125 Left 2
SYMATTR InstName V2
SYMATTR Value -3.7
SYMBOL AD8220 496 -1104 R0
SYMATTR InstName U1
SYMBOL voltage 96 -912 R0
WINDOW 0 35 39 Left 2
WINDOW 123 0 0 Left 0
WINDOW 39 0 0 Left 0
SYMATTR InstName Vcm
SYMATTR Value 500m
SYMBOL res 816 -1120 R90
WINDOW 0 0 56 VBottom 2
WINDOW 3 32 56 VTop 2
SYMATTR InstName R2
SYMATTR Value 62K
SYMATTR SpiceLine tol=1 pwr=0.1
SYMBOL voltage 96 -1040 R0
WINDOW 123 0 0 Left 0
WINDOW 39 0 0 Left 0
SYMATTR InstName V3
SYMATTR Value 200m
SYMBOL OpAmps\\OP2177 1024 -1152 R0
WINDOW 3 -26 148 Left 2
SYMATTR InstName U2
SYMBOL cap 912 -1120 R90
WINDOW 0 0 32 VBottom 2
WINDOW 3 32 32 VTop 2
SYMATTR InstName C2
SYMATTR Value 4.7µ
SYMBOL res 1088 -1232 R90
WINDOW 0 0 56 VBottom 2
WINDOW 3 32 56 VTop 2
SYMATTR InstName R4
SYMATTR Value 100K
SYMATTR SpiceLine tol=1 pwr=0.1
SYMBOL cap 1056 -1344 R90
WINDOW 0 0 32 VBottom 2
WINDOW 3 32 32 VTop 2
SYMATTR InstName C1
SYMATTR Value 1nF
SYMBOL OpAmps\\OP2177 1392 -1136 R0
SYMATTR InstName U3
SYMBOL res 1312 -1104 R90
WINDOW 0 0 56 VBottom 2
WINDOW 3 32 56 VTop 2
SYMATTR InstName R3
SYMATTR Value 10K
SYMBOL res 1440 -1248 R90
WINDOW 0 0 56 VBottom 2
WINDOW 3 32 56 VTop 2
SYMATTR InstName R5
SYMATTR Value 100K
TEXT 328 -960 Left 2 !.tran 1 uic
